Version 4
SHEET 1 1484 712
WIRE -288 -32 -480 -32
WIRE 224 -32 -288 -32
WIRE 1136 -32 448 -32
WIRE 224 32 224 -32
WIRE 448 64 448 -32
WIRE 448 64 368 64
WIRE 944 96 448 96
WIRE 992 96 944 96
WIRE 1136 96 1136 -32
WIRE 1136 96 1072 96
WIRE 1232 96 1136 96
WIRE 1344 96 1232 96
WIRE 1392 96 1344 96
WIRE -480 160 -480 -32
WIRE 448 160 448 96
WIRE 448 160 368 160
WIRE -288 176 -288 -32
WIRE 1136 176 1136 96
WIRE 1136 176 512 176
WIRE 512 192 512 176
WIRE -48 256 -176 256
WIRE 64 256 -48 256
WIRE 432 256 368 256
WIRE 1344 272 1344 96
WIRE -176 288 -176 256
WIRE 944 288 944 96
WIRE 1136 288 1136 176
WIRE 1232 288 1232 96
WIRE 432 320 432 256
WIRE 512 320 512 272
WIRE 512 320 432 320
WIRE 416 352 368 352
WIRE 512 352 512 320
WIRE -176 384 -176 368
WIRE -48 384 -48 256
WIRE -480 480 -480 240
WIRE -288 480 -288 240
WIRE -288 480 -480 480
WIRE -176 480 -176 448
WIRE -176 480 -288 480
WIRE -48 480 -48 448
WIRE -48 480 -176 480
WIRE 224 480 224 384
WIRE 224 480 -48 480
WIRE 512 480 512 432
WIRE 512 480 224 480
WIRE 944 480 944 352
WIRE 944 480 512 480
WIRE 1136 480 1136 352
WIRE 1136 480 944 480
WIRE 1232 480 1232 352
WIRE 1232 480 1136 480
WIRE 1344 480 1344 352
WIRE 1344 480 1232 480
WIRE 224 544 224 480
WIRE 64 640 64 256
WIRE 416 640 416 352
WIRE 416 640 64 640
FLAG 224 544 0
FLAG 1392 96 V+
IOPIN 1392 96 Out
FLAG -16 -48 Vin
FLAG 0 240 Vc
FLAG 432 240 FB
FLAG 448 80 SW
SYMBOL polcap -304 176 R0
WINDOW 3 24 56 Left 2
SYMATTR Value 22µ
SYMATTR InstName C1
SYMATTR SpiceLine V=63 Irms=240m Rser=1 Lser=0 mfg="Panasonic" pn="ECA1JFQ220" type="Al electrolytic"
SYMATTR Description Capacitor
SYMATTR Type cap
SYMBOL cap -192 384 R0
SYMATTR InstName C2
SYMATTR Value 2200p
SYMBOL cap -64 384 R0
SYMATTR InstName C3
SYMATTR Value 100p
SYMBOL polcap 1120 288 R0
WINDOW 3 24 56 Left 2
SYMATTR Value 220µ
SYMATTR InstName C6
SYMATTR SpiceLine V=25 Irms=575m Rser=0.12 Lser=0 mfg="Panasonic" pn="ECA1EFQ221L" type="Al electrolytic"
SYMATTR Description Capacitor
SYMATTR Type cap
SYMBOL res -192 272 R0
SYMATTR InstName R1
SYMATTR Value 22k
SYMBOL res 496 176 R0
SYMATTR InstName R2
SYMATTR Value 36.5k
SYMBOL res 496 336 R0
SYMATTR InstName R3
SYMATTR Value 12.1k
SYMBOL schottky 960 352 R180
WINDOW 0 24 72 Left 2
WINDOW 3 24 0 Left 2
SYMATTR InstName D2
SYMATTR Value MBRS1100
SYMATTR Description Diode
SYMATTR Type diode
SYMBOL ind 1088 80 R90
WINDOW 0 5 56 VBottom 2
WINDOW 3 32 56 VTop 2
SYMATTR InstName L2
SYMATTR Value 100µ
SYMATTR SpiceLine Ipk=2 Rser=0.04 Rpar=0 Cpar=0 mfg="Coiltronics" pn="CTX100-2-52"
SYMBOL voltage -480 144 R0
WINDOW 123 0 0 Left 2
WINDOW 39 24 132 Left 2
SYMATTR SpiceLine Rser=0.1
SYMATTR InstName V2
SYMATTR Value 13.5
SYMBOL current 1344 272 R0
WINDOW 123 0 0 Left 2
WINDOW 39 0 0 Left 2
SYMATTR InstName I1
SYMATTR Value 0.2
SYMBOL PowerProducts\\LT1776 224 208 R0
SYMATTR InstName U2
SYMBOL cap 1216 288 R0
SYMATTR InstName C4
SYMATTR Value 2.2µ
SYMATTR SpiceLine V=10 Irms=11.456 Rser=0.004 Lser=0 mfg="KEMET" pn="C0805C225K8PAC" type="X5R"
TEXT -512 688 Left 2 !.tran 6m uic
